Version 4
SHEET 1 880 680
WIRE 432 -16 384 -16
WIRE 560 -16 496 -16
WIRE 160 0 112 0
WIRE 288 0 224 0
WIRE 256 32 192 32
WIRE 512 32 464 32
WIRE 512 48 512 32
WIRE 192 160 192 112
WIRE 464 160 464 112
WIRE 16 176 -32 176
WIRE 112 176 112 0
WIRE 112 176 96 176
WIRE 160 176 112 176
WIRE 288 192 288 0
WIRE 288 192 224 192
WIRE 384 192 384 -16
WIRE 384 192 368 192
WIRE 432 192 384 192
WIRE 560 192 560 -16
WIRE 560 192 496 192
WIRE 608 192 560 192
WIRE 160 208 112 208
WIRE 432 208 384 208
WIRE 192 256 192 224
WIRE 464 256 464 224
WIRE 112 272 112 208
WIRE 384 336 384 208
FLAG -32 256 0
FLAG 192 336 0
FLAG 464 336 0
FLAG 512 48 0
FLAG 256 32 0
FLAG 384 336 0
FLAG 112 272 0
SYMBOL voltage -32 160 R0
WINDOW 123 0 0 Left 2
WINDOW 39 0 0 Left 2
SYMATTR InstName V1
SYMATTR Value SINE(0 1 50 0 0 0 10)
SYMBOL voltage 192 128 R180
WINDOW 0 24 96 Left 2
WINDOW 3 24 16 Left 2
WINDOW 123 0 0 Left 2
WINDOW 39 0 0 Left 2
SYMATTR InstName V2
SYMATTR Value 5
SYMBOL voltage 192 352 R180
WINDOW 0 24 96 Left 2
WINDOW 3 24 16 Left 2
WINDOW 123 0 0 Left 2
WINDOW 39 0 0 Left 2
SYMATTR InstName V3
SYMATTR Value 5
SYMBOL voltage 464 128 R180
WINDOW 0 24 96 Left 2
WINDOW 3 24 16 Left 2
WINDOW 123 0 0 Left 2
WINDOW 39 0 0 Left 2
SYMATTR InstName V4
SYMATTR Value 5
SYMBOL voltage 464 352 R180
WINDOW 0 24 96 Left 2
WINDOW 3 24 16 Left 2
WINDOW 123 0 0 Left 2
WINDOW 39 0 0 Left 2
SYMATTR InstName V5
SYMATTR Value 5
SYMBOL Opamps\\OP07 192 128 R0
SYMATTR InstName U1
SYMBOL Opamps\\OP07 464 128 R0
SYMATTR InstName U2
SYMBOL res 112 160 R90
WINDOW 0 0 56 VBottom 2
WINDOW 3 32 56 VTop 2
SYMATTR InstName R1
SYMATTR Value 1k
SYMBOL res 384 176 R90
WINDOW 0 0 56 VBottom 2
WINDOW 3 32 56 VTop 2
SYMATTR InstName R2
SYMATTR Value 1k
SYMBOL cap 224 -16 R90
WINDOW 0 0 32 VBottom 2
WINDOW 3 32 32 VTop 2
SYMATTR InstName C1
SYMATTR Value 1µF
SYMBOL cap 496 -32 R90
WINDOW 0 0 32 VBottom 2
WINDOW 3 32 32 VTop 2
SYMATTR InstName C2
SYMATTR Value 1µF
TEXT -136 400 Left 2 !.tran 200ms
