Version 4
SHEET 1 880 680
WIRE 256 -64 112 -64
WIRE 256 -32 256 -64
WIRE 240 64 240 32
WIRE 240 64 208 64
WIRE 272 64 272 32
WIRE 448 64 272 64
WIRE -48 96 -96 96
WIRE -32 96 -48 96
WIRE 112 96 112 -64
WIRE 112 96 48 96
WIRE 208 96 208 64
WIRE 208 96 176 96
WIRE 224 96 208 96
WIRE 336 96 304 96
WIRE 352 96 336 96
WIRE 448 96 448 64
WIRE 448 96 432 96
WIRE 496 96 448 96
WIRE -176 128 -192 128
WIRE -96 128 -96 96
WIRE -48 128 -48 96
WIRE 48 128 -48 128
WIRE 208 128 208 96
WIRE 208 128 80 128
WIRE 496 128 496 96
WIRE 48 144 48 128
WIRE 80 144 80 128
WIRE -48 176 -48 128
WIRE 64 224 64 208
WIRE 160 224 64 224
WIRE 160 240 160 224
WIRE 160 240 80 240
WIRE 336 240 336 96
WIRE 336 240 160 240
WIRE 400 240 336 240
WIRE -192 272 -192 128
WIRE -192 272 -272 272
WIRE -96 272 -192 272
WIRE -32 272 -96 272
WIRE -16 272 -32 272
WIRE 80 272 80 240
WIRE 80 272 64 272
WIRE 400 304 400 240
WIRE 464 304 400 304
WIRE -96 352 -96 336
WIRE -32 368 -32 336
FLAG -96 352 0
FLAG -32 368 0
FLAG -48 240 0
FLAG 496 208 0
FLAG -272 352 0
FLAG 464 304 vout
SYMBOL cap 176 80 R90
WINDOW 0 0 32 VBottom 2
WINDOW 3 32 32 VTop 2
SYMATTR InstName C1
SYMATTR Value 1µF
SYMBOL cap -32 240 R180
WINDOW 0 24 56 Left 2
WINDOW 3 24 8 Left 2
SYMATTR InstName C2
SYMATTR Value 1µF
SYMBOL Opamps\\OP07 128 176 R90
SYMATTR InstName U2
SYMBOL res -80 112 R90
WINDOW 0 0 56 VBottom 2
WINDOW 3 32 56 VTop 2
SYMATTR InstName R1
SYMATTR Value 1k
SYMBOL res 64 80 R90
WINDOW 0 0 56 VBottom 2
WINDOW 3 32 56 VTop 2
SYMATTR InstName R2
SYMATTR Value 1k
SYMBOL res 80 256 R90
WINDOW 0 0 56 VBottom 2
WINDOW 3 32 56 VTop 2
SYMATTR InstName R3
SYMATTR Value 1k
SYMBOL res 320 80 R90
WINDOW 0 0 56 VBottom 2
WINDOW 3 32 56 VTop 2
SYMATTR InstName R4
SYMATTR Value 1k
SYMBOL res 448 80 R90
WINDOW 0 0 56 VBottom 2
WINDOW 3 32 56 VTop 2
SYMATTR InstName R5
SYMATTR Value 1k
SYMBOL res 512 224 R180
WINDOW 0 36 76 Left 2
WINDOW 3 36 40 Left 2
SYMATTR InstName R6
SYMATTR Value 1k
SYMBOL diode -112 272 R0
SYMATTR InstName D1
SYMBOL diode -16 336 R180
WINDOW 0 24 64 Left 2
WINDOW 3 24 0 Left 2
SYMATTR InstName D2
SYMBOL Opamps\\OP07 192 0 R270
SYMATTR InstName U1
SYMBOL voltage -272 256 R0
WINDOW 123 0 0 Left 2
WINDOW 39 0 0 Left 2
SYMATTR InstName V1
SYMATTR Value PULSE(0 5 0 1ns 1ns 5ms 10ms 10)
TEXT -306 392 Left 2 !.tran 100ms
