Version 4
SHEET 1 880 680
WIRE 192 -16 64 -16
WIRE 128 64 64 64
WIRE 0 112 -96 112
WIRE -96 144 -96 112
WIRE 64 192 64 160
WIRE 80 192 64 192
FLAG 144 240 0
FLAG 80 288 0
FLAG -96 224 0
FLAG 192 64 0
FLAG 128 64 Vout
SYMBOL res 48 -32 R0
SYMATTR InstName R1
SYMATTR Value 1k
SYMBOL pnp 144 288 R180
SYMATTR InstName Q1
SYMBOL npn 0 64 R0
SYMATTR InstName Q2
SYMBOL voltage 192 -32 R0
WINDOW 123 0 0 Left 2
WINDOW 39 0 0 Left 2
SYMATTR InstName V1
SYMATTR Value 2.5
SYMBOL voltage -96 128 R0
WINDOW 123 0 0 Left 2
WINDOW 39 0 0 Left 2
SYMATTR InstName V2
SYMATTR Value 0
TEXT -248 144 Left 2 !.dc V2 0 2 .01
