Version 4
SHEET 1 880 680
WIRE 144 64 112 64
WIRE 256 64 224 64
WIRE 112 80 112 64
WIRE 112 128 112 96
WIRE 64 160 -64 160
WIRE -64 192 -64 160
FLAG 256 144 0
FLAG -64 272 0
FLAG 112 176 0
SYMBOL voltage 256 48 R0
WINDOW 123 0 0 Left 2
WINDOW 39 0 0 Left 2
SYMATTR InstName V1
SYMATTR Value .9
SYMBOL voltage -64 176 R0
WINDOW 123 0 0 Left 2
WINDOW 39 0 0 Left 2
SYMATTR InstName V2
SYMATTR Value 0
SYMBOL voltage 240 64 R90
WINDOW 0 -32 56 VBottom 2
WINDOW 3 32 56 VTop 2
WINDOW 123 0 0 Left 2
WINDOW 39 0 0 Left 2
SYMATTR InstName V3
SYMATTR Value 0
SYMBOL pmos4 64 80 R0
SYMATTR InstName M1
TEXT -16 232 Left 2 !.dc V2 0 .9
TEXT 160 184 Left 2 ;.lib "C:\\Users\\JOYDEEP DAS\\Desktop\\180nm_bulk.txt"
