Version 4
SHEET 1 880 680
WIRE 96 96 16 96
WIRE 208 96 160 96
WIRE 304 96 288 96
WIRE 368 96 304 96
WIRE 16 128 16 96
WIRE 208 128 208 96
WIRE 304 128 304 96
FLAG 16 208 0
FLAG 208 192 0
FLAG 304 208 0
FLAG 368 96 Vout
SYMBOL diode 96 112 R270
WINDOW 0 32 32 VTop 2
WINDOW 3 0 32 VBottom 2
SYMATTR InstName D1
SYMBOL cap 192 128 R0
SYMATTR InstName C1
SYMATTR Value 1µF
SYMBOL res 288 112 R0
SYMATTR InstName R1
SYMATTR Value 100
SYMBOL voltage 16 112 R0
WINDOW 123 0 0 Left 2
WINDOW 39 0 0 Left 2
SYMATTR InstName V1
SYMATTR Value SINE(0 5 60 0 0 0)
SYMBOL res 304 80 R90
WINDOW 0 0 56 VBottom 2
WINDOW 3 32 56 VTop 2
SYMATTR InstName R2
SYMATTR Value 2100
TEXT -16 232 Left 2 !.tran .1s
