Version 4
SHEET 1 880 680
WIRE 272 32 160 32
WIRE 272 96 272 32
WIRE 224 112 160 112
WIRE 96 160 96 144
WIRE 96 160 48 160
WIRE 176 208 160 208
WIRE 176 224 176 208
WIRE 256 304 256 224
WIRE 256 304 176 304
WIRE 176 320 176 304
FLAG 272 176 0
FLAG 208 128 Vout
FLAG 176 320 0
FLAG -32 240 0
SYMBOL npn 96 112 R0
SYMATTR InstName Q1
SYMBOL voltage 272 80 R0
WINDOW 123 0 0 Left 2
WINDOW 39 0 0 Left 2
SYMATTR InstName V1
SYMATTR Value .5
SYMBOL res 144 16 R0
SYMATTR InstName R1
SYMATTR Value 100
SYMBOL res 272 208 R90
WINDOW 0 0 56 VBottom 2
WINDOW 3 32 56 VTop 2
SYMATTR InstName R2
SYMATTR Value 1k
SYMBOL res 64 144 R90
WINDOW 0 0 56 VBottom 2
WINDOW 3 32 56 VTop 2
SYMATTR InstName R3
SYMATTR Value 10
SYMBOL voltage -32 144 R0
WINDOW 123 0 0 Left 2
WINDOW 39 0 0 Left 2
SYMATTR InstName V2
SYMATTR Value 0
TEXT -16 296 Left 2 !;tran 1ms
TEXT -200 168 Left 2 !.dc V2 0 2 
