Version 4
SHEET 1 1520 680
WIRE 288 32 224 32
WIRE 416 32 368 32
WIRE 224 80 224 48
WIRE 416 80 416 32
WIRE 96 112 16 112
WIRE 176 112 96 112
WIRE 16 128 16 112
WIRE 224 160 224 128
WIRE 96 240 96 112
WIRE 176 240 96 240
WIRE 224 240 224 208
FLAG 16 208 0
FLAG 224 256 0
FLAG 416 160 0
SYMBOL voltage 16 112 R0
WINDOW 123 0 0 Left 2
WINDOW 39 0 0 Left 2
SYMATTR InstName V1
SYMATTR Value .9
SYMBOL voltage 416 64 R0
WINDOW 123 0 0 Left 2
WINDOW 39 0 0 Left 2
SYMATTR InstName V2
SYMATTR Value 0
SYMBOL nmos4 176 160 R0
SYMATTR InstName M1
SYMATTR Value2 l=.36 w=5
SYMBOL pmos4 176 32 R0
SYMATTR InstName M2
SYMATTR Value2 l=.36 w=5
SYMBOL voltage 384 32 R90
WINDOW 0 -32 56 VBottom 2
WINDOW 3 32 56 VTop 2
WINDOW 123 0 0 Left 2
WINDOW 39 0 0 Left 2
SYMATTR InstName V3
SYMATTR Value 0
TEXT 456 112 Left 2 !.dc V2 0 1.8
