Pulse Responsive Example
r1 in out 1k
c1 out 0 1pF
vin in 0 pulse(0 1 0 1n 2n 5n)
.tran .2n 10n
.end