c1 in  out 5p

r1 out 0 2meg

vin in 0 pulse(0 1 1u 1u 1)

.tran .2u 30u

.end
